6918852
  -OEChem-09222622352D

 51 53  0     0  0  0  0  0  0999 V2000
    2.8660   -4.0670    0.0000 S   0  0  0  0  0  0  0  0  0  0  0  0
    8.0622    0.9330    0.0000 F   0  0  0  0  0  0  0  0  0  0  0  0
    9.7942    1.9330    0.0000 F   0  0  0  0  0  0  0  0  0  0  0  0
    3.3660   -4.9330    0.0000 O   0  0  0  0  0  0  0  0  0  0  0  0
    2.3660   -3.2010    0.0000 O   0  0  0  0  0  0  0  0  0  0  0  0
    5.4641    2.4330    0.0000 O   0  0  0  0  0  0  0  0  0  0  0  0
    6.3301    3.9330    0.0000 O   0  0  0  0  0  0  0  0  0  0  0  0
    3.7320   -3.5670    0.0000 N   0  0  0  0  0  0  0  0  0  0  0  0
    6.3301   -2.0670    0.0000 N   0  0  0  0  0  0  0  0  0  0  0  0
    5.4641   -0.5670    0.0000 N   0  0  0  0  0  0  0  0  0  0  0  0
    7.1962   -0.5670    0.0000 N   0  0  0  0  0  0  0  0  0  0  0  0
    4.5981    0.9330    0.0000 N   0  0  0  0  0  0  0  0  0  0  0  0
    5.4641   -2.5670    0.0000 C   0  0  0  0  0  0  0  0  0  0  0  0
    5.4641   -3.5670    0.0000 C   0  0  0  0  0  0  0  0  0  0  0  0
    4.5981   -2.0670    0.0000 C   0  0  0  0  0  0  0  0  0  0  0  0
    4.5981   -4.0670    0.0000 C   0  0  0  0  0  0  0  0  0  0  0  0
    3.7320   -2.5670    0.0000 C   0  0  0  0  0  0  0  0  0  0  0  0
    2.0000   -4.5670    0.0000 C   0  0  0  0  0  0  0  0  0  0  0  0
    6.3301   -1.0670    0.0000 C   0  0  0  0  0  0  0  0  0  0  0  0
    5.4641    0.4330    0.0000 C   0  0  0  0  0  0  0  0  0  0  0  0
    6.3301    0.9330    0.0000 C   0  0  0  0  0  0  0  0  0  0  0  0
    7.1962    0.4330    0.0000 C   0  0  0  0  0  0  0  0  0  0  0  0
    6.3301    1.9330    0.0000 C   0  0  0  0  0  0  0  0  0  0  0  0
    7.1962    2.4330    0.0000 C   0  0  0  0  0  0  0  0  0  0  0  0
    7.1962    3.4330    0.0000 C   0  0  0  0  0  0  0  0  0  0  0  0
    8.0622    1.9330    0.0000 C   0  0  0  0  0  0  0  0  0  0  0  0
    8.0622    3.9330    0.0000 C   0  0  0  0  0  0  0  0  0  0  0  0
    8.9282    2.4330    0.0000 C   0  0  0  0  0  0  0  0  0  0  0  0
    8.9282    3.4330    0.0000 C   0  0  0  0  0  0  0  0  0  0  0  0
    6.3301    4.9330    0.0000 C   0  0  0  0  0  0  0  0  0  0  0  0
    5.4641   -1.9470    0.0000 H   0  0  0  0  0  0  0  0  0  0  0  0
    5.6762   -4.1496    0.0000 H   0  0  0  0  0  0  0  0  0  0  0  0
    6.0747   -3.4593    0.0000 H   0  0  0  0  0  0  0  0  0  0  0  0
    4.9966   -1.5920    0.0000 H   0  0  0  0  0  0  0  0  0  0  0  0
    4.1996   -1.5920    0.0000 H   0  0  0  0  0  0  0  0  0  0  0  0
    4.1996   -4.5419    0.0000 H   0  0  0  0  0  0  0  0  0  0  0  0
    4.9966   -4.5419    0.0000 H   0  0  0  0  0  0  0  0  0  0  0  0
    3.5200   -1.9844    0.0000 H   0  0  0  0  0  0  0  0  0  0  0  0
    3.1215   -2.6747    0.0000 H   0  0  0  0  0  0  0  0  0  0  0  0
    6.8671   -2.3770    0.0000 H   0  0  0  0  0  0  0  0  0  0  0  0
    1.6900   -4.0300    0.0000 H   0  0  0  0  0  0  0  0  0  0  0  0
    1.4631   -4.8770    0.0000 H   0  0  0  0  0  0  0  0  0  0  0  0
    2.3100   -5.1039    0.0000 H   0  0  0  0  0  0  0  0  0  0  0  0
    7.7331    0.7430    0.0000 H   0  0  0  0  0  0  0  0  0  0  0  0
    4.0611    0.6230    0.0000 H   0  0  0  0  0  0  0  0  0  0  0  0
    4.5981    1.5530    0.0000 H   0  0  0  0  0  0  0  0  0  0  0  0
    8.0622    4.5530    0.0000 H   0  0  0  0  0  0  0  0  0  0  0  0
    9.4651    3.7430    0.0000 H   0  0  0  0  0  0  0  0  0  0  0  0
    6.9501    4.9330    0.0000 H   0  0  0  0  0  0  0  0  0  0  0  0
    6.3301    5.5530    0.0000 H   0  0  0  0  0  0  0  0  0  0  0  0
    5.7101    4.9330    0.0000 H   0  0  0  0  0  0  0  0  0  0  0  0
  1  4  2  0  0  0  0
  1  5  2  0  0  0  0
  1  8  1  0  0  0  0
  1 18  1  0  0  0  0
  2 26  1  0  0  0  0
  3 28  1  0  0  0  0
  6 23  2  0  0  0  0
  7 25  1  0  0  0  0
  7 30  1  0  0  0  0
  8 16  1  0  0  0  0
  8 17  1  0  0  0  0
  9 13  1  0  0  0  0
  9 19  1  0  0  0  0
  9 40  1  0  0  0  0
 10 19  1  0  0  0  0
 10 20  2  0  0  0  0
 11 19  2  0  0  0  0
 11 22  1  0  0  0  0
 12 20  1  0  0  0  0
 12 45  1  0  0  0  0
 12 46  1  0  0  0  0
 13 14  1  0  0  0  0
 13 15  1  0  0  0  0
 13 31  1  0  0  0  0
 14 16  1  0  0  0  0
 14 32  1  0  0  0  0
 14 33  1  0  0  0  0
 15 17  1  0  0  0  0
 15 34  1  0  0  0  0
 15 35  1  0  0  0  0
 16 36  1  0  0  0  0
 16 37  1  0  0  0  0
 17 38  1  0  0  0  0
 17 39  1  0  0  0  0
 18 41  1  0  0  0  0
 18 42  1  0  0  0  0
 18 43  1  0  0  0  0
 20 21  1  0  0  0  0
 21 22  2  0  0  0  0
 21 23  1  0  0  0  0
 22 44  1  0  0  0  0
 23 24  1  0  0  0  0
 24 25  2  0  0  0  0
 24 26  1  0  0  0  0
 25 27  1  0  0  0  0
 26 28  2  0  0  0  0
 27 29  2  0  0  0  0
 27 47  1  0  0  0  0
 28 29  1  0  0  0  0
 29 48  1  0  0  0  0
 30 49  1  0  0  0  0
 30 50  1  0  0  0  0
 30 51  1  0  0  0  0
M  END
> <PUBCHEM_COMPOUND_CID>
6918852

> <PUBCHEM_COMPOUND_CANONICALIZED>
1

> <PUBCHEM_CACTVS_COMPLEXITY>
701

> <PUBCHEM_CACTVS_HBOND_ACCEPTOR>
11

> <PUBCHEM_CACTVS_HBOND_DONOR>
2

> <PUBCHEM_CACTVS_ROTATABLE_BOND>
6

> <PUBCHEM_CACTVS_SUBSKEYS>
AAADceB7uYBAAAAAAAAAAAAAAAAAAAAAAAA8WIAAAAAAAAABwAAAHwQQQAAADCzBmg6/tpbIFAKoArJ3ZHCCiCk1IKAJ2KEuTNiMLr7E/FqENegs8BPI6eeY2OKOAAAAAAAIAAAAAAAAABAAAAAAAAAAAA==

> <PUBCHEM_IUPAC_OPENEYE_NAME>
[4-amino-2-[(1-methylsulfonyl-4-piperidyl)amino]pyrimidin-5-yl]-(2,3-difluoro-6-methoxy-phenyl)methanone

> <PUBCHEM_IUPAC_CAS_NAME>
[4-amino-2-[(1-methylsulfonyl-4-piperidinyl)amino]-5-pyrimidinyl]-(2,3-difluoro-6-methoxyphenyl)methanone

> <PUBCHEM_IUPAC_NAME_MARKUP>
[4-amino-2-[(1-methylsulfonylpiperidin-4-yl)amino]pyrimidin-5-yl]-(2,3-difluoro-6-methoxyphenyl)methanone

> <PUBCHEM_IUPAC_NAME>
[4-amino-2-[(1-methylsulfonylpiperidin-4-yl)amino]pyrimidin-5-yl]-(2,3-difluoro-6-methoxyphenyl)methanone

> <PUBCHEM_IUPAC_SYSTEMATIC_NAME>
[4-azanyl-2-[(1-methylsulfonylpiperidin-4-yl)amino]pyrimidin-5-yl]-[2,3-bis(fluoranyl)-6-methoxy-phenyl]methanone

> <PUBCHEM_IUPAC_TRADITIONAL_NAME>
[4-amino-2-[(1-mesyl-4-piperidyl)amino]pyrimidin-5-yl]-(2,3-difluoro-6-methoxy-phenyl)methanone

> <PUBCHEM_IUPAC_INCHI>
InChI=1S/C18H21F2N5O4S/c1-29-13-4-3-12(19)15(20)14(13)16(26)11-9-22-18(24-17(11)21)23-10-5-7-25(8-6-10)30(2,27)28/h3-4,9-10H,5-8H2,1-2H3,(H3,21,22,23,24)

> <PUBCHEM_IUPAC_INCHIKEY>
JRNJNYBQQYBCLE-UHFFFAOYSA-N

> <PUBCHEM_XLOGP3_AA>
2.1

> <PUBCHEM_EXACT_MASS>
441.12823167

> <PUBCHEM_MOLECULAR_FORMULA>
C18H21F2N5O4S

> <PUBCHEM_MOLECULAR_WEIGHT>
441.5

> <PUBCHEM_SMILES>
COC1=C(C(=C(C=C1)F)F)C(=O)C2=CN=C(N=C2N)NC3CCN(CC3)S(=O)(=O)C

> <PUBCHEM_CONNECTIVITY_SMILES>
COC1=C(C(=C(C=C1)F)F)C(=O)C2=CN=C(N=C2N)NC3CCN(CC3)S(=O)(=O)C

> <PUBCHEM_CACTVS_TPSA>
136

> <PUBCHEM_MONOISOTOPIC_WEIGHT>
441.12823167

> <PUBCHEM_TOTAL_CHARGE>
0

> <PUBCHEM_HEAVY_ATOM_COUNT>
30

> <PUBCHEM_ATOM_DEF_STEREO_COUNT>
0

> <PUBCHEM_ATOM_UDEF_STEREO_COUNT>
0

> <PUBCHEM_BOND_DEF_STEREO_COUNT>
0

> <PUBCHEM_BOND_UDEF_STEREO_COUNT>
0

> <PUBCHEM_ISOTOPIC_ATOM_COUNT>
0

> <PUBCHEM_COMPONENT_COUNT>
1

> <PUBCHEM_CACTVS_TAUTO_COUNT>
-1

> <PUBCHEM_COORDINATE_TYPE>
1
5
255

> <PUBCHEM_BONDANNOTATIONS>
10  19  8
10  20  8
11  19  8
11  22  8
20  21  8
21  22  8
24  25  8
24  26  8
25  27  8
26  28  8
27  29  8
28  29  8

$$$$
